/*--------------------------------*- C++ -*----------------------------------*\
| =========                 |                                                 |
| \\      /  F ield         | OpenFOAM: The Open Source CFD Toolbox           |
|  \\    /   O peration     | Version:  2212                                  |
|   \\  /    A nd           | Website:  www.openfoam.com                      |
|    \\/     M anipulation  |                                                 |
\*---------------------------------------------------------------------------*/
FoamFile
{
    version     2.0;
    format      ascii;
    arch        "LSB;label=32;scalar=64";
    class       polyBoundaryMesh;
    location    "constant/polyMesh";
    object      boundary;
}
// * * * * * * * * * * * * * * * * * * * * * * * * * * * * * * * * * * * * * //

11
(
    fInp1
    {
        type            patch;
        nFaces          52;
        startFace       920509;
    }
    fInp2
    {
        type            patch;
        nFaces          58;
        startFace       920561;
    }
    fOutp1
    {
        type            patch;
        nFaces          254;
        startFace       920619;
    }
    fOutp2
    {
        type            patch;
        nFaces          250;
        startFace       920873;
    }
    fOuterBox-htSurface3
    {
        type            cyclic;
        nFaces          5656;
        startFace       921123;
        neighbourPatch  fOuterFlow-htSurface3;
    }
    fInnerTube-htSurface1
    {
        type            cyclic;
        nFaces          15954;
        startFace       926779;
        neighbourPatch  fInnerFlow-htSurface1;
    }
    fInnerTube-htSurface2
    {
        type            cyclic;
        nFaces          13108;
        startFace       942733;
        neighbourPatch  fOuterFlow-htSurface2;
    }
    fOuterFlow-htSurface3
    {
        type            cyclic;
        nFaces          12826;
        startFace       955841;
        neighbourPatch  fOuterBox-htSurface3;
    }
    fOuterFlow-htSurface2
    {
        type            cyclic;
        nFaces          10098;
        startFace       968667;
        neighbourPatch  fInnerTube-htSurface2;
    }
    fInnerFlow-htSurface1
    {
        type            cyclic;
        nFaces          17316;
        startFace       978765;
        neighbourPatch  fInnerTube-htSurface1;
    }
    fWalls
    {
        type            wall;
        nFaces          5812;
        startFace       996081;
    }
)

// ************************************************************************* //
